Version 4
SHEET 1 5524 4052
WIRE 400 -240 176 -240
WIRE 720 -240 464 -240
WIRE 176 -128 176 -240
WIRE 176 -128 16 -128
WIRE 288 -128 176 -128
WIRE 464 -128 368 -128
WIRE 512 -128 464 -128
WIRE 592 -128 512 -128
WIRE 688 -128 656 -128
WIRE 720 -128 720 -240
WIRE 720 -128 688 -128
WIRE 736 -128 720 -128
WIRE 800 -128 736 -128
WIRE 864 -128 800 -128
WIRE 1024 -128 864 -128
WIRE 1104 -128 1024 -128
WIRE 1184 -128 1104 -128
WIRE 1280 -128 1184 -128
WIRE 1344 -128 1280 -128
WIRE 1392 -128 1344 -128
WIRE 1504 -128 1392 -128
WIRE 1568 -128 1504 -128
WIRE 1744 -128 1696 -128
WIRE 1776 -128 1744 -128
WIRE 1888 -128 1840 -128
WIRE 1952 -128 1888 -128
WIRE 2000 -128 1952 -128
WIRE 2080 -128 2000 -128
WIRE 2112 -128 2080 -128
WIRE 2160 -128 2112 -128
WIRE 2176 -128 2176 -208
WIRE 2176 -128 2160 -128
WIRE 2208 -128 2176 -128
WIRE 2320 -128 2320 -208
WIRE 2320 -128 2288 -128
WIRE 2352 -128 2320 -128
WIRE 1280 -96 1280 -128
WIRE 1392 -96 1392 -128
WIRE 1568 -96 1568 -128
WIRE 1696 -96 1696 -128
WIRE 16 -80 16 -128
WIRE 176 -80 176 -128
WIRE 1344 -64 1344 -128
WIRE -1072 -32 -1104 -32
WIRE -1056 -32 -1072 -32
WIRE -960 -32 -1008 -32
WIRE -960 -16 -960 -32
WIRE 2976 -16 2880 -16
WIRE 3056 -16 2976 -16
WIRE 3216 -16 3056 -16
WIRE 3456 -16 3216 -16
WIRE 3632 -16 3456 -16
WIRE 3728 -16 3632 -16
WIRE 1568 0 1568 -16
WIRE 1696 0 1696 -16
WIRE 3216 0 3216 -16
WIRE -1056 16 -1056 -32
WIRE -1008 16 -1008 -32
WIRE 1888 16 1888 -128
WIRE 1952 16 1952 -128
WIRE 2000 16 2000 -128
WIRE 2080 16 2080 -128
WIRE 2160 16 2160 -128
WIRE 1280 32 1280 -16
WIRE 1344 32 1344 0
WIRE 1344 32 1280 32
WIRE 1392 32 1392 -32
WIRE 1392 32 1344 32
WIRE 1280 48 1280 32
WIRE -1872 64 -1904 64
WIRE -1712 64 -1872 64
WIRE -1072 64 -1632 64
WIRE -896 64 -992 64
WIRE -768 64 -896 64
WIRE -592 64 -688 64
WIRE -480 64 -592 64
WIRE -272 64 -400 64
WIRE -128 64 -272 64
WIRE 16 64 16 -16
WIRE 16 64 -128 64
WIRE 1392 64 1392 32
WIRE 2000 80 1984 80
WIRE 3104 80 2976 80
WIRE 3216 80 3104 80
WIRE -1904 96 -1904 64
WIRE 688 96 688 -128
WIRE 736 96 736 -128
WIRE 800 96 800 -128
WIRE 864 96 864 -128
WIRE 1024 96 1024 -128
WIRE 1104 96 1104 -128
WIRE 1184 96 1184 -128
WIRE 3728 96 3728 -16
WIRE 3872 96 3728 96
WIRE -896 112 -896 64
WIRE -272 112 -272 64
WIRE 1568 112 1568 80
WIRE 3216 112 3216 80
WIRE 1344 128 1344 32
WIRE 3056 128 3056 -16
WIRE 2976 144 2976 80
WIRE 3024 144 2976 144
WIRE -128 160 -128 144
WIRE 1952 160 1952 80
WIRE 2000 160 2000 80
WIRE 2000 160 1952 160
WIRE 2080 160 2080 80
WIRE 2080 160 2000 160
WIRE 3152 160 3088 160
WIRE 2880 176 2880 64
WIRE 2880 176 2784 176
WIRE 3024 176 2880 176
WIRE 3728 176 3728 96
WIRE 1280 192 1280 128
WIRE 1392 192 1392 128
WIRE 1392 192 1280 192
WIRE 1456 192 1392 192
WIRE 1568 192 1456 192
WIRE 2784 192 2784 176
WIRE 2880 192 2880 176
WIRE 3632 192 3632 64
WIRE 3696 192 3632 192
WIRE 4256 192 4176 192
WIRE 464 208 464 -128
WIRE 1568 208 1568 192
WIRE 1568 208 1552 208
WIRE 1648 208 1568 208
WIRE 3360 208 3216 208
WIRE 3376 208 3360 208
WIRE 3520 208 3376 208
WIRE 4064 208 3760 208
WIRE 4176 208 4176 192
WIRE 4176 208 4160 208
WIRE -1904 224 -1904 176
WIRE -1856 224 -1904 224
WIRE -896 224 -896 176
WIRE -896 224 -1856 224
WIRE -768 224 -896 224
WIRE -512 224 -688 224
WIRE -480 224 -512 224
WIRE -272 224 -272 176
WIRE -272 224 -400 224
WIRE -128 224 -272 224
WIRE 176 224 176 -16
WIRE 176 224 -128 224
WIRE 3216 224 3216 208
WIRE 3216 224 3152 224
WIRE 3520 224 3520 208
WIRE 3696 224 3520 224
WIRE 3760 224 3760 208
WIRE 3632 240 3632 192
WIRE 3216 256 3216 224
WIRE 3376 256 3376 208
WIRE 4064 256 4032 256
WIRE 4080 256 4064 256
WIRE 2784 272 2784 256
WIRE 2880 272 2784 272
WIRE 3056 272 3056 192
WIRE 16 288 16 64
WIRE 176 288 176 224
WIRE 368 288 288 288
WIRE 416 288 368 288
WIRE 1520 288 1424 288
WIRE -592 304 -592 64
WIRE -512 304 -512 224
WIRE 2880 304 2880 272
WIRE 3152 304 3152 224
WIRE 3312 304 3296 304
WIRE 1568 320 1568 304
WIRE 1616 320 1568 320
WIRE 1568 336 1568 320
WIRE 1616 352 1616 320
WIRE 1648 352 1616 352
WIRE 3872 368 3872 96
WIRE 3872 368 3728 368
WIRE 1888 384 1888 80
WIRE 2000 384 1888 384
WIRE 2080 384 2080 160
WIRE 2080 384 2000 384
WIRE 2160 384 2160 80
WIRE 2160 384 2080 384
WIRE 3728 384 3728 368
WIRE 3520 400 3520 224
WIRE 3696 400 3520 400
WIRE -592 416 -592 368
WIRE -512 416 -512 368
WIRE -512 416 -592 416
WIRE 16 416 16 352
WIRE 16 416 -512 416
WIRE 176 416 176 352
WIRE 176 416 16 416
WIRE 464 416 464 304
WIRE 464 416 176 416
WIRE 688 416 688 160
WIRE 688 416 464 416
WIRE 736 416 736 160
WIRE 736 416 688 416
WIRE 800 416 800 160
WIRE 800 416 736 416
WIRE 864 416 864 160
WIRE 864 416 800 416
WIRE 1024 416 1024 160
WIRE 1024 416 864 416
WIRE 1104 416 1104 160
WIRE 1104 416 1024 416
WIRE 1184 416 1184 160
WIRE 1184 416 1104 416
WIRE 1568 416 1184 416
WIRE 3904 416 3760 416
WIRE 4032 416 4032 256
WIRE 4032 416 3904 416
WIRE 464 432 464 416
WIRE 3456 432 3456 64
WIRE 3696 432 3456 432
WIRE 3152 448 3152 368
WIRE 3216 448 3216 320
WIRE 3216 448 3152 448
WIRE 3456 448 3456 432
WIRE 736 464 736 416
WIRE 2000 512 2000 384
WIRE 3216 512 3216 448
WIRE 3376 512 3376 352
WIRE 3376 512 3216 512
WIRE 3216 528 3216 512
WIRE -2016 544 -2048 544
WIRE -1952 544 -2016 544
WIRE -1792 544 -1952 544
WIRE -1664 544 -1792 544
WIRE 3296 560 3296 304
WIRE 3648 560 3376 560
WIRE 4256 560 4256 192
WIRE 4256 560 3648 560
WIRE 4272 560 4256 560
WIRE -1952 576 -1952 544
WIRE -1792 576 -1792 544
WIRE 2224 592 2192 592
WIRE 2304 592 2224 592
WIRE 2384 608 2352 608
WIRE -1664 624 -1664 544
WIRE 2352 624 2352 608
WIRE -1728 672 -1792 672
WIRE 2992 672 2880 672
WIRE 3088 672 2992 672
WIRE 3280 672 3088 672
WIRE 3376 672 3280 672
WIRE 1696 720 1696 80
WIRE 1888 720 1696 720
WIRE 2000 720 2000 592
WIRE 2000 720 1888 720
WIRE 2352 720 2352 704
WIRE 2352 720 2000 720
WIRE 3088 720 3088 672
WIRE -1952 736 -1952 656
WIRE -1856 736 -1856 624
WIRE -1856 736 -1952 736
WIRE 2880 736 2880 672
WIRE 2992 736 2992 672
WIRE 400 752 368 752
WIRE 432 752 400 752
WIRE 3280 752 3280 672
WIRE 3376 752 3376 672
WIRE -1952 784 -1952 736
WIRE -1856 784 -1856 736
WIRE -1664 784 -1664 720
WIRE -1600 784 -1664 784
WIRE -1488 784 -1520 784
WIRE -1408 784 -1488 784
WIRE -1264 784 -1408 784
WIRE -1152 784 -1264 784
WIRE -960 784 -1152 784
WIRE 1888 784 1888 720
WIRE 432 800 432 752
WIRE 640 816 608 816
WIRE 720 816 704 816
WIRE 752 816 720 816
WIRE 864 816 832 816
WIRE -960 832 -960 784
WIRE -1488 864 -1488 784
WIRE -1408 864 -1408 784
WIRE -1264 864 -1264 784
WIRE 400 864 368 864
WIRE 432 864 400 864
WIRE -1952 880 -1952 848
WIRE -1904 880 -1952 880
WIRE -1856 880 -1856 848
WIRE -1856 880 -1904 880
WIRE 2880 880 2880 816
WIRE 2992 880 2992 816
WIRE 2992 880 2880 880
WIRE 3088 880 2992 880
WIRE 3168 880 3152 880
WIRE 3280 880 3280 816
WIRE 3280 880 3248 880
WIRE 3328 880 3280 880
WIRE 3376 880 3376 832
WIRE 3376 880 3328 880
WIRE 432 896 432 864
WIRE 496 896 496 800
WIRE 704 896 496 896
WIRE 944 896 704 896
WIRE 1328 896 944 896
WIRE 1488 896 1456 896
WIRE 1504 896 1488 896
WIRE 2576 896 2544 896
WIRE 2608 896 2576 896
WIRE -1904 912 -1904 880
WIRE 1328 928 1328 896
WIRE -1152 944 -1152 784
WIRE -1088 944 -1152 944
WIRE -784 944 -832 944
WIRE -608 944 -704 944
WIRE -592 944 -608 944
WIRE -512 944 -592 944
WIRE 1488 944 1488 896
WIRE -1488 976 -1488 928
WIRE -1408 976 -1408 928
WIRE -1408 976 -1488 976
WIRE -1344 976 -1408 976
WIRE -1264 976 -1264 928
WIRE -1264 976 -1344 976
WIRE 2256 976 2096 976
WIRE 2320 976 2288 976
WIRE 2352 976 2320 976
WIRE -1344 1008 -1344 976
WIRE 704 1008 704 896
WIRE 608 1024 608 816
WIRE 672 1024 608 1024
WIRE 2672 1024 2640 1024
WIRE 2688 1024 2672 1024
WIRE 2832 1024 2784 1024
WIRE 2864 1024 2832 1024
WIRE -592 1040 -592 944
WIRE -512 1040 -512 944
WIRE 864 1040 864 816
WIRE 864 1040 736 1040
WIRE 976 1040 864 1040
WIRE 1008 1040 976 1040
WIRE 1328 1040 1328 1008
WIRE 1408 1040 1328 1040
WIRE 2576 1040 2576 896
WIRE 512 1056 496 1056
WIRE 672 1056 512 1056
WIRE 2544 1056 1840 1056
WIRE -960 1072 -960 1056
WIRE 608 1072 608 1024
WIRE 1008 1072 1008 1040
WIRE 2320 1072 2320 976
WIRE 2656 1072 2608 1072
WIRE 2688 1072 2656 1072
WIRE 1328 1088 1328 1040
WIRE 1488 1088 1488 1024
WIRE 1648 1088 1488 1088
WIRE 1776 1088 1648 1088
WIRE 1840 1088 1840 1056
WIRE 1840 1088 1776 1088
WIRE 2464 1088 2448 1088
WIRE 2544 1088 2464 1088
WIRE 2864 1088 2864 1024
WIRE 3008 1088 2864 1088
WIRE 3008 1104 2928 1104
WIRE 3200 1104 3072 1104
WIRE 3392 1104 3296 1104
WIRE 3728 1104 3664 1104
WIRE 3840 1104 3808 1104
WIRE 3856 1104 3840 1104
WIRE 3968 1104 3920 1104
WIRE 4016 1104 3968 1104
WIRE 4064 1104 4016 1104
WIRE -4544 1120 -4576 1120
WIRE -4480 1120 -4544 1120
WIRE -4320 1120 -4480 1120
WIRE -4192 1120 -4320 1120
WIRE 3008 1120 2992 1120
WIRE 3200 1120 3104 1120
WIRE 3296 1120 3296 1104
WIRE 3296 1120 3264 1120
WIRE 3392 1120 3328 1120
WIRE 3600 1120 3456 1120
WIRE 2992 1136 2992 1120
WIRE 3008 1136 2992 1136
WIRE 3200 1136 3184 1136
WIRE 3392 1136 3376 1136
WIRE 3968 1136 3968 1104
WIRE -4480 1152 -4480 1120
WIRE -4320 1152 -4320 1120
WIRE 3184 1152 3184 1136
WIRE 3200 1152 3184 1152
WIRE 3376 1152 3376 1136
WIRE 3392 1152 3376 1152
WIRE 2576 1168 2576 1104
WIRE 2992 1168 2992 1136
WIRE 3008 1168 3008 1152
WIRE 3008 1168 2992 1168
WIRE 3024 1168 3024 1152
WIRE 3024 1168 3008 1168
WIRE -960 1184 -960 1152
WIRE -624 1184 -960 1184
WIRE -592 1184 -592 1104
WIRE -592 1184 -624 1184
WIRE -512 1184 -512 1104
WIRE -512 1184 -592 1184
WIRE 1408 1184 1408 1040
WIRE 1488 1184 1488 1088
WIRE 1776 1184 1776 1088
WIRE 1840 1184 1840 1088
WIRE 2048 1184 1936 1184
WIRE 2096 1184 2048 1184
WIRE 2128 1184 2096 1184
WIRE 2208 1184 2128 1184
WIRE 2304 1184 2272 1184
WIRE 2320 1184 2320 1152
WIRE 2320 1184 2304 1184
WIRE 2336 1184 2320 1184
WIRE 2448 1184 2448 1088
WIRE 2448 1184 2416 1184
WIRE 3184 1184 3184 1152
WIRE 3200 1184 3200 1168
WIRE 3200 1184 3184 1184
WIRE 3216 1184 3216 1168
WIRE 3216 1184 3200 1184
WIRE 3376 1184 3376 1152
WIRE 3392 1184 3392 1168
WIRE 3392 1184 3376 1184
WIRE 3408 1184 3408 1168
WIRE 3408 1184 3392 1184
WIRE 3600 1184 3600 1152
WIRE 3840 1184 3840 1104
WIRE 3904 1184 3840 1184
WIRE -4192 1200 -4192 1120
WIRE -624 1200 -624 1184
WIRE 608 1200 608 1152
WIRE 704 1200 704 1072
WIRE 1008 1200 1008 1152
WIRE 1104 1200 1008 1200
WIRE 1232 1200 1168 1200
WIRE 1312 1200 1312 1184
WIRE 1328 1200 1328 1168
WIRE 1328 1200 1312 1200
WIRE 3008 1200 3008 1168
WIRE 1936 1216 1936 1184
WIRE 2128 1216 2128 1184
WIRE 3200 1216 3200 1184
WIRE 3328 1216 3328 1120
WIRE 3328 1216 3312 1216
WIRE 3392 1216 3392 1184
WIRE -4256 1248 -4320 1248
WIRE 1008 1248 1008 1200
WIRE 1008 1248 976 1248
WIRE 1104 1248 1008 1248
WIRE 1200 1248 1104 1248
WIRE 1328 1248 1328 1200
WIRE 1328 1248 1264 1248
WIRE 1360 1248 1328 1248
WIRE 1408 1248 1360 1248
WIRE 2320 1248 2320 1184
WIRE 2448 1248 2448 1184
WIRE 3104 1248 3104 1120
WIRE 3120 1248 3104 1248
WIRE 2048 1264 2048 1184
WIRE 3392 1264 3376 1264
WIRE 1008 1280 1008 1248
WIRE 976 1296 976 1248
WIRE 976 1296 944 1296
WIRE 1408 1296 1408 1248
WIRE 3968 1296 3968 1232
WIRE -4480 1312 -4480 1232
WIRE -4384 1312 -4384 1200
WIRE -4384 1312 -4480 1312
WIRE 944 1312 944 1296
WIRE 3344 1312 3344 1280
WIRE 3360 1312 3360 1280
WIRE 3360 1312 3344 1312
WIRE 3376 1312 3376 1280
WIRE 3376 1312 3360 1312
WIRE 3392 1312 3392 1264
WIRE 3392 1312 3376 1312
WIRE 3408 1312 3392 1312
WIRE 1104 1328 1104 1248
WIRE 1392 1328 1104 1328
WIRE 1776 1344 1776 1248
WIRE 1840 1344 1840 1248
WIRE 3312 1344 3312 1280
WIRE 3312 1344 3088 1344
WIRE -4480 1360 -4480 1312
WIRE -4384 1360 -4384 1312
WIRE -4192 1360 -4192 1296
WIRE -4128 1360 -4192 1360
WIRE -3968 1360 -4048 1360
WIRE -3888 1360 -3968 1360
WIRE -3696 1360 -3888 1360
WIRE -3632 1360 -3696 1360
WIRE -3568 1360 -3632 1360
WIRE -3456 1360 -3568 1360
WIRE -2400 1360 -3456 1360
WIRE -2208 1360 -2400 1360
WIRE 3328 1360 3328 1280
WIRE 3328 1360 3312 1360
WIRE 3360 1360 3328 1360
WIRE 3408 1360 3360 1360
WIRE 3328 1376 3328 1360
WIRE 3408 1376 3408 1360
WIRE 3680 1376 3680 1360
WIRE 3728 1376 3680 1376
WIRE -3456 1408 -3456 1360
WIRE -2208 1408 -2208 1360
WIRE 1936 1408 1936 1296
WIRE 2048 1408 2048 1328
WIRE 2048 1408 1936 1408
WIRE 2128 1408 2128 1296
WIRE 2128 1408 2048 1408
WIRE 2208 1408 2128 1408
WIRE 2320 1408 2320 1328
WIRE 2320 1408 2208 1408
WIRE 2448 1408 2448 1312
WIRE 2448 1408 2320 1408
WIRE -1632 1424 -1664 1424
WIRE -1600 1424 -1632 1424
WIRE -1264 1424 -1280 1424
WIRE -1136 1424 -1200 1424
WIRE -912 1424 -1056 1424
WIRE -3968 1440 -3968 1360
WIRE -3888 1440 -3888 1360
WIRE -3696 1440 -3696 1360
WIRE 2208 1440 2208 1408
WIRE -4480 1456 -4480 1424
WIRE -4432 1456 -4480 1456
WIRE -4384 1456 -4384 1424
WIRE -4384 1456 -4432 1456
WIRE -1632 1472 -1632 1424
WIRE 784 1472 784 1312
WIRE 944 1472 944 1376
WIRE 1008 1472 1008 1360
WIRE 1008 1472 944 1472
WIRE 1232 1472 1008 1472
WIRE 1408 1472 1408 1360
WIRE 1408 1472 1232 1472
WIRE 1952 1472 1920 1472
WIRE 1984 1472 1952 1472
WIRE 2720 1472 2688 1472
WIRE 2752 1472 2720 1472
WIRE -4432 1488 -4432 1456
WIRE 160 1488 128 1488
WIRE 192 1488 160 1488
WIRE 864 1488 864 1376
WIRE 1488 1488 1488 1248
WIRE 3408 1488 3408 1456
WIRE 3728 1488 3728 1456
WIRE -1280 1504 -1280 1424
WIRE -1200 1504 -1280 1504
WIRE -1072 1504 -1136 1504
WIRE -912 1504 -912 1424
WIRE -912 1504 -1008 1504
WIRE 1952 1504 1952 1472
WIRE 2112 1504 1952 1504
WIRE 2720 1504 2720 1472
WIRE -3632 1520 -3632 1360
WIRE -3584 1520 -3632 1520
WIRE -3264 1520 -3328 1520
WIRE -3120 1520 -3184 1520
WIRE -3008 1520 -3056 1520
WIRE -2928 1520 -3008 1520
WIRE -2880 1520 -2928 1520
WIRE -2864 1520 -2880 1520
WIRE -2768 1520 -2864 1520
WIRE -2720 1520 -2768 1520
WIRE -2592 1520 -2640 1520
WIRE -2464 1520 -2528 1520
WIRE -2400 1520 -2400 1360
WIRE -2336 1520 -2400 1520
WIRE -2032 1520 -2080 1520
WIRE -1856 1520 -1952 1520
WIRE -1840 1520 -1856 1520
WIRE -1760 1520 -1840 1520
WIRE -448 1520 -480 1520
WIRE -416 1520 -448 1520
WIRE 1232 1520 1232 1472
WIRE 1952 1520 1952 1504
WIRE -3968 1552 -3968 1504
WIRE -3888 1552 -3888 1504
WIRE -3888 1552 -3968 1552
WIRE -3824 1552 -3888 1552
WIRE -3696 1552 -3696 1504
WIRE -3696 1552 -3824 1552
WIRE -3008 1552 -3008 1520
WIRE -2928 1552 -2928 1520
WIRE -1840 1552 -1840 1520
WIRE -1760 1552 -1760 1520
WIRE -1024 1552 -1056 1552
WIRE -992 1552 -1024 1552
WIRE -448 1552 -448 1520
WIRE -448 1552 -704 1552
WIRE 160 1552 160 1488
WIRE -2768 1568 -2768 1520
WIRE -1024 1568 -1024 1552
WIRE -1024 1568 -1072 1568
WIRE 448 1568 416 1568
WIRE 480 1568 448 1568
WIRE -3824 1584 -3824 1552
WIRE -2464 1584 -2464 1520
WIRE -448 1584 -448 1552
WIRE -1024 1600 -1024 1568
WIRE -592 1600 -656 1600
WIRE -480 1600 -592 1600
WIRE -1632 1616 -1632 1552
WIRE -1280 1616 -1280 1504
WIRE -1280 1616 -1632 1616
WIRE -1200 1616 -1280 1616
WIRE -1056 1616 -1200 1616
WIRE -240 1616 -416 1616
WIRE 448 1616 448 1568
WIRE -912 1632 -912 1504
WIRE -912 1632 -992 1632
WIRE -832 1632 -912 1632
WIRE -800 1632 -832 1632
WIRE -656 1632 -800 1632
WIRE -480 1632 -656 1632
WIRE -240 1632 -288 1632
WIRE -128 1632 -176 1632
WIRE -112 1632 -128 1632
WIRE 416 1632 320 1632
WIRE 976 1632 896 1632
WIRE 1184 1632 1056 1632
WIRE 1328 1632 1328 1248
WIRE 1328 1632 1264 1632
WIRE 2112 1632 2112 1504
WIRE -1168 1648 -1184 1648
WIRE -1056 1648 -1168 1648
WIRE -240 1648 -256 1648
WIRE 576 1648 480 1648
WIRE 656 1648 576 1648
WIRE 896 1648 896 1632
WIRE 896 1648 880 1648
WIRE 976 1648 976 1632
WIRE 1056 1648 1056 1632
WIRE 2080 1648 2048 1648
WIRE -1632 1664 -1632 1616
WIRE -256 1664 -256 1648
WIRE -240 1664 -256 1664
WIRE 160 1664 160 1632
WIRE 256 1664 160 1664
WIRE 416 1664 256 1664
WIRE 2288 1664 2144 1664
WIRE 2336 1664 2288 1664
WIRE 2464 1664 2416 1664
WIRE 2720 1664 2720 1584
WIRE 2720 1664 2656 1664
WIRE 2784 1664 2720 1664
WIRE 2864 1664 2784 1664
WIRE 2928 1664 2928 1104
WIRE -2864 1680 -2864 1520
WIRE -656 1680 -656 1632
WIRE 320 1680 320 1632
WIRE 1952 1680 1952 1600
WIRE 2032 1680 1952 1680
WIRE 2080 1680 2032 1680
WIRE -3456 1696 -3456 1632
WIRE -2208 1696 -2208 1632
WIRE -256 1696 -256 1664
WIRE -240 1696 -240 1680
WIRE -240 1696 -256 1696
WIRE -224 1696 -224 1680
WIRE -224 1696 -240 1696
WIRE 160 1696 160 1664
WIRE 784 1696 784 1472
WIRE 784 1696 768 1696
WIRE 800 1696 784 1696
WIRE 880 1696 880 1648
WIRE -736 1712 -800 1712
WIRE -336 1712 -368 1712
WIRE -288 1712 -288 1632
WIRE -288 1712 -336 1712
WIRE 976 1712 976 1696
WIRE 2864 1712 2864 1680
WIRE -1024 1728 -1024 1664
WIRE -448 1728 -448 1648
WIRE -240 1728 -240 1696
WIRE 976 1728 976 1712
WIRE 976 1728 864 1728
WIRE 1056 1728 1056 1712
WIRE 1136 1728 1056 1728
WIRE 2032 1744 2032 1680
WIRE 2176 1744 2032 1744
WIRE 2288 1744 2288 1664
WIRE 2288 1744 2256 1744
WIRE -864 1760 -976 1760
WIRE -656 1760 -656 1744
WIRE -656 1760 -720 1760
WIRE 864 1760 864 1728
WIRE 2464 1760 2416 1760
WIRE 2720 1760 2656 1760
WIRE 448 1776 448 1680
WIRE 1136 1776 1136 1728
WIRE 1232 1776 1136 1776
WIRE -1632 1792 -1632 1744
WIRE 320 1792 320 1760
WIRE 1952 1792 1952 1760
WIRE 2112 1792 2112 1696
WIRE 2112 1792 1952 1792
WIRE 2416 1792 2416 1760
WIRE 2416 1792 2112 1792
WIRE -3456 1808 -3456 1776
WIRE -3008 1808 -3008 1616
WIRE -3008 1808 -3456 1808
WIRE -2928 1808 -2928 1616
WIRE -2928 1808 -3008 1808
WIRE -2864 1808 -2864 1760
WIRE -2864 1808 -2928 1808
WIRE -2768 1808 -2768 1632
WIRE -2768 1808 -2864 1808
WIRE -2464 1808 -2464 1664
WIRE -2464 1808 -2768 1808
WIRE -2208 1808 -2208 1776
WIRE -2208 1808 -2464 1808
WIRE -1840 1808 -1840 1616
WIRE -1840 1808 -2208 1808
WIRE -1760 1808 -1760 1616
WIRE -1760 1808 -1840 1808
WIRE -656 1808 -656 1760
WIRE -656 1808 -800 1808
WIRE 1232 1808 1232 1776
WIRE 1952 1808 1952 1792
WIRE 2720 1808 2720 1760
WIRE -3456 1840 -3456 1808
WIRE -976 1840 -1088 1840
WIRE -656 1840 -656 1808
WIRE 160 1840 160 1760
WIRE 256 1856 256 1664
WIRE 400 1856 256 1856
WIRE 576 1856 576 1648
WIRE 576 1856 480 1856
WIRE 16 1984 -400 1984
WIRE 16 2064 16 1984
WIRE -304 2080 -336 2080
WIRE -160 2080 -304 2080
WIRE 80 2112 64 2112
WIRE -160 2128 -160 2080
WIRE 80 2128 80 2112
WIRE 80 2128 64 2128
WIRE 112 2128 80 2128
WIRE -336 2144 -336 2080
WIRE 32 2144 32 2128
WIRE 48 2144 48 2128
WIRE 48 2144 32 2144
WIRE 80 2144 80 2128
WIRE 80 2144 48 2144
WIRE 0 2160 0 2128
WIRE 0 2160 -16 2160
WIRE 416 2160 144 2160
WIRE 784 2160 736 2160
WIRE 848 2160 784 2160
WIRE 1344 2160 1168 2160
WIRE 1408 2160 1344 2160
WIRE 1536 2160 1488 2160
WIRE 1648 2160 1600 2160
WIRE 1760 2160 1648 2160
WIRE 1808 2160 1760 2160
WIRE -400 2176 -400 1984
WIRE -240 2176 -400 2176
WIRE 144 2176 144 2160
WIRE 144 2176 -80 2176
WIRE 416 2176 336 2176
WIRE 688 2176 480 2176
WIRE 848 2176 688 2176
WIRE 1104 2176 912 2176
WIRE 416 2192 384 2192
WIRE 848 2192 832 2192
WIRE 1648 2192 1648 2160
WIRE 384 2208 384 2192
WIRE 416 2208 384 2208
WIRE 832 2208 832 2192
WIRE 848 2208 832 2208
WIRE -448 2224 -480 2224
WIRE -432 2224 -448 2224
WIRE -368 2224 -432 2224
WIRE -240 2224 -368 2224
WIRE 0 2224 0 2160
WIRE 0 2224 -64 2224
WIRE 16 2224 16 2128
WIRE 32 2224 16 2224
WIRE 384 2224 384 2208
WIRE 416 2224 384 2224
WIRE 384 2240 384 2224
WIRE 432 2240 432 2224
WIRE 432 2240 384 2240
WIRE 832 2240 832 2208
WIRE 848 2240 848 2224
WIRE 848 2240 832 2240
WIRE 864 2240 864 2224
WIRE 864 2240 848 2240
WIRE 1104 2240 1104 2208
WIRE 1344 2240 1344 2160
WIRE 1584 2240 1344 2240
WIRE 384 2256 384 2240
WIRE 96 2272 80 2272
WIRE 848 2272 848 2240
WIRE -368 2288 -368 2224
WIRE 48 2320 48 2288
WIRE 64 2320 64 2288
WIRE 64 2320 48 2320
WIRE 80 2320 80 2288
WIRE 80 2320 64 2320
WIRE 96 2320 96 2272
WIRE 96 2320 80 2320
WIRE 112 2320 96 2320
WIRE -304 2352 -304 2080
WIRE -160 2352 -160 2272
WIRE -160 2352 -304 2352
WIRE 1648 2352 1648 2288
WIRE 144 2368 144 2176
WIRE 144 2368 -384 2368
WIRE 336 2368 336 2176
WIRE 1232 2368 336 2368
WIRE -288 2384 -320 2384
WIRE -144 2384 -288 2384
WIRE 32 2400 32 2288
WIRE 160 2400 32 2400
WIRE 176 2400 160 2400
WIRE -144 2432 -144 2384
WIRE 16 2432 16 2288
WIRE 48 2432 16 2432
WIRE -320 2448 -320 2384
WIRE -384 2480 -384 2368
WIRE -224 2480 -384 2480
WIRE -16 2480 -64 2480
WIRE 112 2480 96 2480
WIRE 112 2496 112 2480
WIRE 112 2496 96 2496
WIRE 144 2496 112 2496
WIRE 496 2496 464 2496
WIRE 64 2512 64 2496
WIRE 80 2512 80 2496
WIRE 80 2512 64 2512
WIRE 112 2512 112 2496
WIRE 112 2512 80 2512
WIRE -448 2528 -448 2224
WIRE -352 2528 -448 2528
WIRE -224 2528 -352 2528
WIRE 32 2528 32 2496
WIRE 32 2528 -48 2528
WIRE 464 2560 464 2496
WIRE -352 2592 -352 2528
WIRE 720 2592 688 2592
WIRE 752 2592 720 2592
WIRE 720 2624 720 2592
WIRE 688 2640 592 2640
WIRE -288 2656 -288 2384
WIRE -144 2656 -144 2576
WIRE -144 2656 -288 2656
WIRE 864 2656 752 2656
WIRE 880 2656 864 2656
WIRE 1008 2656 960 2656
WIRE 1088 2656 1008 2656
WIRE 1216 2656 1184 2656
WIRE 1232 2656 1232 2368
WIRE 1232 2656 1216 2656
WIRE -16 2672 -16 2480
WIRE -16 2672 -352 2672
WIRE 464 2672 464 2640
WIRE 688 2672 464 2672
WIRE 864 2672 864 2656
WIRE -272 2688 -304 2688
WIRE -128 2688 -272 2688
WIRE 1008 2688 1008 2656
WIRE 464 2704 464 2672
WIRE 592 2704 592 2640
WIRE 1280 2704 1200 2704
WIRE 1296 2704 1280 2704
WIRE -128 2736 -128 2688
WIRE -304 2752 -304 2688
WIRE -352 2784 -352 2672
WIRE -352 2784 -368 2784
WIRE -208 2784 -352 2784
WIRE 0 2784 -48 2784
WIRE 720 2784 720 2688
WIRE -448 2832 -448 2528
WIRE -336 2832 -448 2832
WIRE -208 2832 -336 2832
WIRE 48 2832 48 2496
WIRE 48 2832 -32 2832
WIRE 592 2832 592 2784
WIRE 464 2864 464 2784
WIRE -336 2896 -336 2832
WIRE -272 2960 -272 2688
WIRE -128 2960 -128 2880
WIRE -128 2960 -272 2960
WIRE 0 3008 0 2784
WIRE 272 3024 240 3024
WIRE 304 3024 272 3024
WIRE 272 3088 272 3024
WIRE 848 3104 816 3104
WIRE 880 3104 848 3104
WIRE 848 3152 848 3104
WIRE -448 3168 -448 2832
WIRE 816 3168 720 3168
WIRE 1008 3184 880 3184
WIRE 1136 3184 1088 3184
WIRE 1216 3184 1136 3184
WIRE 1392 3184 1312 3184
WIRE 1440 3184 1392 3184
WIRE 272 3200 272 3168
WIRE 640 3200 272 3200
WIRE 816 3200 640 3200
WIRE 1136 3216 1136 3184
WIRE 272 3232 272 3200
WIRE 1376 3232 1328 3232
WIRE 1424 3232 1376 3232
WIRE 640 3248 640 3200
WIRE 720 3264 720 3168
WIRE 848 3312 848 3216
WIRE 272 3392 272 3312
WIRE 720 3392 720 3344
WIRE 272 3488 240 3488
WIRE 304 3488 272 3488
WIRE 272 3552 272 3488
WIRE 848 3568 816 3568
WIRE 880 3568 848 3568
WIRE 848 3616 848 3568
WIRE 816 3632 720 3632
WIRE 1008 3648 880 3648
WIRE 1136 3648 1088 3648
WIRE 1216 3648 1136 3648
WIRE 1392 3648 1312 3648
WIRE 1440 3648 1392 3648
WIRE 272 3664 272 3632
WIRE 816 3664 272 3664
WIRE 1136 3680 1136 3648
WIRE 272 3696 272 3664
WIRE 1376 3696 1328 3696
WIRE 1424 3696 1376 3696
WIRE 720 3728 720 3632
WIRE 848 3776 848 3680
WIRE 272 3856 272 3776
WIRE 720 3856 720 3808
FLAG 2112 -128 Vout
FLAG 1504 -128 VL
FLAG 1888 784 0
FLAG 736 464 0
FLAG 1456 192 V_FET
FLAG 976 1040 V_oa
FLAG 704 1200 0
FLAG 2384 608 Vsense
FLAG 608 1200 0
FLAG 512 1056 Vsense
FLAG 1648 1088 Vcontrol
FLAG 4016 1104 Vpwm
FLAG 1424 288 vpwm
FLAG 3056 272 0
FLAG 2880 304 0
FLAG 3216 528 0
FLAG 3632 320 0
FLAG 3728 240 0
FLAG 3728 448 0
FLAG 3456 528 0
FLAG 1232 1520 0
FLAG 1488 1488 0
FLAG 256 1664 Vss
FLAG 1840 1344 0
FLAG 1776 1344 0
FLAG 400 864 5v
FLAG 2976 -16 5v
FLAG 1104 1248 Vfb
FLAG 1360 1248 Vk
FLAG 3360 208 vcarrier2
FLAG 3648 560 reset
FLAG -1872 64 v+
FLAG 3008 1200 0
FLAG 2048 1648 Vsense
FLAG 1952 1472 5v_sense
FLAG 1952 1808 0
FLAG 3200 1216 0
FLAG -1856 224 v-
FLAG -448 1728 0
FLAG 1760 2160 Vpwm2
FLAG 368 288 Vpwm2
FLAG -1632 1424 VL
FLAG -1024 1728 0
FLAG -1632 1792 0
FLAG -832 1632 vcontrol2
FLAG 848 3312 0
FLAG -960 -16 0
FLAG 720 3392 0
FLAG 272 3024 VL
FLAG 272 3392 0
FLAG -240 1728 0
FLAG 1136 3280 0
FLAG -3456 1840 0
FLAG -4544 1120 VL
FLAG -2880 1520 15v
FLAG -1856 1520 5v
FLAG -4432 1488 0
FLAG 1488 896 5v
FLAG -656 1840 0
FLAG -608 944 5v_iso
FLAG -2016 544 Vout
FLAG 400 752 5v_iso
FLAG -624 1200 0
FLAG -432 2224 reset
FLAG 848 2272 0
FLAG -336 2144 0
FLAG 1392 3184 pfc_en
FLAG -128 1632 pwmout
FLAG -1200 1616 vlscale
FLAG 512 -128 v_fet2
FLAG 1104 2240 0
FLAG -1024 1552 5v
FLAG -448 1520 5v
FLAG -336 1712 pfc_en
FLAG 848 3104 5v
FLAG 784 2160 pwmout
FLAG 720 2784 0
FLAG 592 2832 0
FLAG 1008 2752 0
FLAG 720 2592 5v
FLAG 1280 2704 steadystate
FLAG 1216 2656 nsteadystate
FLAG 1376 3232 npfc_en
FLAG 3120 1248 nsteadystate
FLAG 3600 1184 0
FLAG 688 2176 skip
FLAG 944 896 5v_sense
FLAG -3568 1360 LDO
FLAG -3824 1584 0
FLAG 1392 32 vsnub
FLAG -1088 1840 nsteadystate
FLAG 2576 1168 0
FLAG 2576 896 5v
FLAG 2096 1184 cursense
FLAG 2464 1088 cursensecomp
FLAG 2672 1024 reset
FLAG 2208 1440 0
FLAG 2832 1024 pwm
FLAG 2656 1072 compo
FLAG 3968 1296 0
FLAG 3904 416 clk
FLAG 1648 2352 0
FLAG -592 1600 vcarrier2
FLAG -1168 1728 0
FLAG 1744 -128 vcoil
FLAG -1904 912 0
FLAG -1344 1008 0
FLAG 2720 1808 0
FLAG 2720 1472 5v
FLAG 2784 1664 OC
FLAG 2864 1712 0
FLAG 2320 976 5v
FLAG 1232 1808 0
FLAG 448 1776 0
FLAG 320 1792 0
FLAG 160 1488 nsteadystate
FLAG 160 1840 0
FLAG 448 1568 5v
FLAG 864 1760 0
FLAG 864 1488 0
FLAG -320 2448 0
FLAG -304 2752 0
FLAG 112 2128 0
FLAG 144 2496 0
FLAG 112 2320 0
FLAG 384 2256 0
FLAG 848 3776 0
FLAG 720 3856 0
FLAG 272 3488 VL
FLAG 272 3856 0
FLAG 1136 3744 0
FLAG 1392 3648 1/2F
FLAG 848 3568 5v
FLAG 1376 3696 n1/2F
FLAG 160 2400 1/2F
FLAG 464 2496 VL
FLAG 464 2864 0
FLAG 3392 1216 0
FLAG 3728 1488 0
FLAG 3360 1360 extenable
FLAG 2224 592 extenable
FLAG -1072 -32 n1/2F
FLAG 784 1472 startupfb
FLAG 3088 1344 startupfb
FLAG 3408 1312 0
FLAG 2304 1184 vfilt
FLAG 3104 80 vminus
FLAG 3408 1488 0
FLAG 3088 720 0
FLAG 3328 880 ic_scale
SYMBOL ind2 1552 -112 R0
WINDOW 0 -64 43 Left 2
WINDOW 3 -66 69 Left 2
SYMATTR InstName L1
SYMATTR Value 200µ
SYMATTR Type ind
SYMBOL ind2 1712 0 R180
WINDOW 0 -28 82 Left 2
WINDOW 3 -42 56 Left 2
SYMATTR InstName L2
SYMATTR Value 5.5556µ
SYMATTR Type ind
SYMBOL res 1552 -16 R0
WINDOW 0 -63 36 Left 2
WINDOW 3 -63 59 Left 2
SYMATTR InstName R1
SYMATTR Value 0.217
SYMBOL res 1680 -16 R0
SYMATTR InstName R2
SYMATTR Value 0.01
SYMBOL schottky 1776 -112 R270
WINDOW 0 32 32 VTop 2
WINDOW 3 0 32 VBottom 2
SYMATTR InstName D5
SYMATTR Value MBRS1100
SYMATTR Description Diode
SYMATTR Type diode
SYMBOL polcap 1872 16 R0
WINDOW 3 24 56 Left 2
SYMATTR Value 100µ
SYMATTR InstName C1
SYMATTR Description Capacitor
SYMATTR Type cap
SYMATTR SpiceLine V=63 Irms=900m Rser=.170 Lser=0
SYMBOL diode 32 -16 R180
WINDOW 0 24 64 Left 2
WINDOW 3 24 0 Left 2
SYMATTR InstName D1
SYMATTR Value RR2L6S
SYMBOL res 2336 608 R0
SYMATTR InstName Rsense
SYMATTR Value 0.1
SYMBOL res 736 800 R90
WINDOW 0 0 56 VBottom 2
WINDOW 3 32 56 VTop 2
SYMATTR InstName R7
SYMATTR Value 2.1k
SYMBOL res 592 1056 R0
SYMATTR InstName R8
SYMATTR Value 100
SYMBOL res 992 1264 R0
SYMATTR InstName R10
SYMATTR Value 14k
SYMBOL cap 1264 1232 R90
WINDOW 0 0 32 VBottom 2
WINDOW 3 32 32 VTop 2
SYMATTR InstName C4
SYMATTR Value 1n
SYMBOL TL431 1408 1328 R0
WINDOW 0 -36 -8 Bottom 2
WINDOW 3 -44 17 Top 2
SYMATTR InstName U2
SYMBOL res 1312 1072 R0
SYMATTR InstName R11
SYMATTR Value 1.2k
SYMBOL res 1344 1024 R180
WINDOW 0 36 76 Left 2
WINDOW 3 36 40 Left 2
SYMATTR InstName R12
SYMATTR Value 1k
SYMBOL PS2501A 1408 1216 R0
WINDOW 0 116 -6 Bottom 2
WINDOW 3 116 -5 Top 2
SYMATTR InstName U3
SYMBOL LED 2336 192 R0
SYMATTR InstName D12
SYMATTR Value LaserTest
SYMATTR Description Diode
SYMATTR Type diode
SYMBOL LED 2336 256 R0
SYMATTR InstName D13
SYMATTR Value LaserTest
SYMATTR Description Diode
SYMATTR Type diode
SYMBOL LED 2336 320 R0
SYMATTR InstName D14
SYMATTR Value LaserTest
SYMATTR Description Diode
SYMATTR Type diode
SYMBOL LED 2336 384 R0
SYMATTR InstName D15
SYMATTR Value LaserTest
SYMATTR Description Diode
SYMATTR Type diode
SYMBOL LED 2336 448 R0
SYMATTR InstName D16
SYMATTR Value LaserTest
SYMATTR Description Diode
SYMATTR Type diode
SYMBOL cap 1984 16 R0
SYMATTR InstName C5
SYMATTR Value 470p
SYMATTR SpiceLine V=50 Irms=40.5m Rser=8.42265 Lser=0 mfg="KEMET" pn="C0603C471K5RAC" type="X7R"
SYMBOL cap 2064 16 R0
SYMATTR InstName C6
SYMATTR Value 0.47µ
SYMATTR SpiceLine V=50 Irms=40.5m Rser=8.42265 Lser=0
SYMBOL res 2864 176 R0
SYMATTR InstName R16
SYMATTR Value 10k
SYMBOL res 2864 -32 R0
SYMATTR InstName R17
SYMATTR Value 1k
SYMBOL res 3200 -16 R0
SYMATTR InstName R18
SYMATTR Value 100
SYMBOL pnp 3152 208 M180
SYMATTR InstName Q2
SYMATTR Value 2N2907
SYMBOL cap 3200 256 R0
SYMATTR InstName C9
SYMATTR Value 16n
SYMATTR SpiceLine Rser=0
SYMBOL res 3616 -32 R0
SYMATTR InstName R19
SYMATTR Value 260
SYMBOL res 3616 224 R0
SYMATTR InstName R20
SYMATTR Value 1k
SYMBOL srflop 4112 160 R0
SYMATTR InstName A1
SYMATTR Value2 Vhigh=5 Ref=1 td=100ps
SYMBOL res 3440 -32 R0
SYMATTR InstName R21
SYMATTR Value 1k
SYMBOL res 3440 432 R0
SYMATTR InstName R22
SYMATTR Value 20
SYMBOL LT1720 3728 144 R0
SYMATTR InstName U7
SYMBOL LT1720 3728 352 R0
SYMATTR InstName U8
SYMBOL npn 3312 256 R0
SYMATTR InstName Q3
SYMATTR Value 2N5550
SYMBOL res 1472 928 R0
SYMATTR InstName R9
SYMATTR Value 1.1k
SYMBOL res 3824 1088 R90
WINDOW 0 0 56 VBottom 2
WINDOW 3 32 56 VTop 2
SYMATTR InstName R3
SYMATTR Value 26.7
SYMBOL zener 1856 1248 R180
WINDOW 0 24 64 Left 2
WINDOW 3 -19 -148 Left 2
SYMATTR InstName D6
SYMATTR Value BZX84C3V3
SYMATTR Description Diode
SYMATTR Type diode
SYMBOL cap 1760 1184 R0
SYMATTR InstName C2
SYMATTR Value 330p
SYMBOL LED 2336 -128 R0
SYMATTR InstName D8
SYMATTR Value LaserTest
SYMATTR Description Diode
SYMATTR Type diode
SYMBOL LED 2336 -64 R0
SYMATTR InstName D9
SYMATTR Value LaserTest
SYMATTR Description Diode
SYMATTR Type diode
SYMBOL LED 2336 0 R0
SYMATTR InstName D10
SYMATTR Value LaserTest
SYMATTR Description Diode
SYMATTR Type diode
SYMBOL LED 2336 64 R0
SYMATTR InstName D11
SYMATTR Value LaserTest
SYMATTR Description Diode
SYMATTR Type diode
SYMBOL LED 2336 128 R0
SYMATTR InstName D17
SYMATTR Value LaserTest
SYMATTR Description Diode
SYMATTR Type diode
SYMBOL voltage -1904 80 R0
WINDOW 123 0 0 Left 2
WINDOW 39 24 124 Left 2
SYMATTR InstName V2
SYMATTR Value SINE(0 180 60 0 0 90)
SYMBOL res 992 1056 R0
SYMATTR InstName R4
SYMATTR Value 3k
SYMBOL schottky 1360 0 R180
WINDOW 0 24 64 Left 2
WINDOW 3 24 0 Left 2
SYMATTR InstName D18
SYMATTR Value UPSC600
SYMATTR Description Diode
SYMATTR Type diode
SYMBOL res 1264 32 R0
SYMATTR InstName R24
SYMATTR Value 3.6798e+04
SYMBOL cap 1376 64 R0